opendss/LVTestCase/data/PV/PV_356.txt
New generator.m_gen51 Phases=1 Bus1=896.1 kV=0.23 kW=1 PF=0.95 Yearly=PV_Shape_66
New generator.m_gen4 Phases=1 Bus1=73.1 kV=0.23 kW=1 PF=0.95 Yearly=NM_Shape_132
New generator.m_gen34 Phases=1 Bus1=629.1 kV=0.23 kW=1 PF=0.95 Yearly=PV_Shape_103
New generator.m_gen17 Phases=1 Bus1=327.3 kV=0.23 kW=1 PF=0.95 Yearly=PV_Shape_22
New generator.m_gen27 Phases=1 Bus1=539.3 kV=0.23 kW=1 PF=0.95 Yearly=PV_Shape_42
New generator.m_gen47 Phases=1 Bus1=835.3 kV=0.23 kW=1 PF=0.95 Yearly=PV_Shape_100
New generator.m_gen30 Phases=1 Bus1=563.1 kV=0.23 kW=1 PF=0.95 Yearly=PV_Shape_161
New generator.m_gen43 Phases=1 Bus1=780.3 kV=0.23 kW=1 PF=0.95 Yearly=PV_Shape_146
New generator.m_gen5 Phases=1 Bus1=74.1 kV=0.23 kW=1 PF=0.95 Yearly=PV_Shape_90
New generator.m_gen55 Phases=1 Bus1=906.1 kV=0.23 kW=1 PF=0.95 Yearly=PV_Shape_8
New generator.m_gen32 Phases=1 Bus1=614.3 kV=0.23 kW=1 PF=0.95 Yearly=NM_Shape_24
